/*--------------------------------*- C++ -*----------------------------------*\
| =========                 |                                                 |
| \\      /  F ield         | OpenFOAM: The Open Source CFD Toolbox           |
|  \\    /   O peration     | Version:  v2206                                 |
|   \\  /    A nd           | Website:  www.openfoam.com                      |
|    \\/     M anipulation  |                                                 |
\*---------------------------------------------------------------------------*/
FoamFile
{
    version     2.0;
    format      ascii;
    class       dictionary;
    object      fvSolution;
}
// * * * * * * * * * * * * * * * * * * * * * * * * * * * * * * * * * * * * * //

solvers
{
    p
    {
        solver           GAMG;
        smoother         DICGaussSeidel;
        tolerance        1e-10; // 1e-6
        relTol           0.0;
        refCell   0;    // or any known fluid‐cell ID
        refValue  0;
    }

    pFinal
    {
        $p;
        relTol          0;
    }

    U
    {
        solver          PBiCGStab;
        preconditioner  DILU;
        smoother        DILU;
        tolerance       1e-10; // 1e-6
        relTol          0.0;
    }

    UFinal
    {
        $U;
        relTol          0;
    }
}

PIMPLE
{
    nOuterCorrectors 2;
    nCorrectors      2;
    nNonOrthogonalCorrectors 0;
    momentumPredictor yes;
    pRefCell 0;
    pRefValue 0;
}

relaxationFactors
{
//    fields   { p 0.3; }
//    equations{ U 0.7; }
}



// ************************************************************************* //
